Version 4
SHEET 1 2500 700
WIRE 576 -1744 368 -1744
WIRE 592 -1680 512 -1680
WIRE 368 -1648 368 -1744
WIRE 512 -1648 512 -1680
WIRE 368 -1520 368 -1568
WIRE 512 -1520 512 -1568
WIRE 512 -1520 368 -1520
WIRE 368 -1488 368 -1520
WIRE 1168 -1328 1008 -1328
WIRE 1232 -1328 1168 -1328
WIRE 1488 -1328 1312 -1328
WIRE 1632 -1328 1488 -1328
WIRE 624 -1312 608 -1312
WIRE 720 -1312 704 -1312
WIRE 736 -1312 720 -1312
WIRE 880 -1312 816 -1312
WIRE 1168 -1280 1168 -1328
WIRE 1744 -1280 1744 -1312
WIRE 432 -1232 416 -1232
WIRE 528 -1232 512 -1232
WIRE 544 -1232 528 -1232
WIRE 640 -1232 624 -1232
WIRE 1744 -1184 1744 -1200
WIRE 1824 -1184 1744 -1184
WIRE 1488 -1168 1488 -1328
WIRE 1520 -1168 1488 -1168
WIRE 2192 -1168 1888 -1168
WIRE 1008 -1152 1008 -1328
WIRE 1056 -1152 1008 -1152
WIRE 1632 -1152 1632 -1328
WIRE 1632 -1152 1584 -1152
WIRE 1824 -1152 1632 -1152
WIRE 720 -1136 720 -1312
WIRE 768 -1136 720 -1136
WIRE 1168 -1136 1168 -1216
WIRE 1168 -1136 1120 -1136
WIRE 1200 -1136 1168 -1136
WIRE 1280 -1136 1264 -1136
WIRE 1360 -1136 1280 -1136
WIRE 1408 -1136 1360 -1136
WIRE 1520 -1136 1488 -1136
WIRE 528 -1120 528 -1232
WIRE 544 -1120 528 -1120
WIRE 880 -1120 880 -1312
WIRE 880 -1120 832 -1120
WIRE 1056 -1120 880 -1120
WIRE 1744 -1120 1744 -1184
WIRE 640 -1104 640 -1232
WIRE 640 -1104 608 -1104
WIRE 768 -1104 640 -1104
WIRE 1360 -1104 1360 -1136
WIRE 544 -1088 272 -1088
WIRE 1280 -1088 1280 -1136
WIRE 1552 -1088 1552 -1120
WIRE 1856 -1088 1856 -1136
WIRE 272 -1072 272 -1088
WIRE 1088 -1072 1088 -1104
WIRE 272 -1056 272 -1072
WIRE 576 -1056 576 -1072
WIRE 800 -1056 800 -1088
WIRE 1280 -1008 1280 -1024
WIRE 1360 -1008 1360 -1024
WIRE 1360 -1008 1280 -1008
WIRE 1744 -1008 1744 -1040
WIRE 1280 -992 1280 -1008
WIRE 272 -960 272 -976
FLAG 2192 -1168 OUT
FLAG 272 -1072 IN
FLAG 576 -1136 +V
FLAG 800 -1152 +V
FLAG 368 -1488 0
FLAG 576 -1744 +V
FLAG 592 -1680 Vmid
FLAG 576 -1056 0
FLAG 800 -1056 0
FLAG 608 -1312 Vmid
FLAG 416 -1232 Vmid
FLAG 272 -960 Vmid
FLAG 1088 -1168 +V
FLAG 1088 -1072 0
FLAG 1552 -1184 +V
FLAG 1552 -1088 0
FLAG 1280 -992 0
FLAG 1856 -1088 0
FLAG 1856 -1200 +V
FLAG 1744 -1312 +V
FLAG 1744 -1008 0
SYMBOL voltage 272 -1072 R0
WINDOW 123 24 146 Left 2
WINDOW 39 24 125 Left 2
WINDOW 3 -136 196 Left 2
SYMATTR Value SINE(0 0.6M 50 0.1 0 0 50)
SYMATTR InstName Vin
SYMBOL res 528 -1248 R90
WINDOW 0 0 56 VBottom 2
WINDOW 3 32 56 VTop 2
SYMATTR InstName R1
SYMATTR Value 1K
SYMBOL res 640 -1248 R90
WINDOW 0 0 56 VBottom 2
WINDOW 3 32 56 VTop 2
SYMATTR InstName R2
SYMATTR Value 47K
SYMBOL res 720 -1328 R90
WINDOW 0 0 56 VBottom 2
WINDOW 3 32 56 VTop 2
SYMATTR InstName R3
SYMATTR Value 1K
SYMBOL res 832 -1328 R90
WINDOW 0 0 56 VBottom 2
WINDOW 3 32 56 VTop 2
SYMATTR InstName R4
SYMATTR Value 68K
SYMBOL OpAmps\\AD8539 576 -1168 R0
SYMATTR InstName U3
SYMBOL OpAmps\\AD8539 800 -1184 R0
SYMATTR InstName U4
SYMBOL voltage 368 -1664 R0
WINDOW 123 0 0 Left 0
WINDOW 39 0 0 Left 0
SYMATTR InstName V3
SYMATTR Value 5
SYMBOL OpAmps\\AD8539 1088 -1200 R0
SYMATTR InstName U2
SYMBOL OpAmps\\AD8539 1552 -1216 R0
SYMATTR InstName U5
SYMBOL diode 1200 -1120 R270
WINDOW 0 32 32 VTop 2
WINDOW 3 0 32 VBottom 2
SYMATTR InstName D1
SYMBOL diode 1152 -1280 R0
SYMATTR InstName D2
SYMBOL res 1504 -1152 R90
WINDOW 0 0 56 VBottom 2
WINDOW 3 32 56 VTop 2
SYMATTR InstName R7
SYMATTR Value 1K
SYMBOL cap 1264 -1088 R0
SYMATTR InstName C4
SYMATTR Value 4.7µ
SYMBOL res 1328 -1344 R90
WINDOW 0 0 56 VBottom 2
WINDOW 3 32 56 VTop 2
SYMATTR InstName R8
SYMATTR Value 20K
SYMBOL voltage 512 -1664 R0
WINDOW 123 0 0 Left 0
WINDOW 39 0 0 Left 0
SYMATTR InstName V1
SYMATTR Value 2.5
SYMBOL res 1344 -1120 R0
SYMATTR InstName R5
SYMATTR Value 120K
SYMBOL Comparators\\LT1720 1856 -1232 R0
SYMATTR InstName U1
SYMBOL res 1728 -1296 R0
SYMATTR InstName R6
SYMATTR Value 18K
SYMBOL res 1728 -1136 R0
SYMATTR InstName R9
SYMATTR Value 22K
TEXT 752 -1736 Left 2 !.tran 0 1.5 0
TEXT 384 -1440 Left 2 ;SPLIT SUPPLY
TEXT 560 -968 Left 2 ;AMPLIFICATION (x 3876)
TEXT 112 -808 Left 2 ;SOURCE: 600 MICRO-VOLT @ 50 Hz
TEXT 1144 -936 Left 2 ;PEAK DETECTOR WITH DECAY
TEXT 1672 -936 Left 2 ;COMPARE WITH 2.75V
